<?xml version="1.0" encoding="UTF-8"?>

<!-- generated on 2023-03-19 20:39:46 by Eclipse SUMO duarouter Version 1.11.0
<configuration xmlns:xsi="http://www.w3.org/2001/XMLSchema-instance" xsi:noNamespaceSchemaLocation="http://sumo.dlr.de/xsd/duarouterConfiguration.xsd">

    <input>
        <net-file value="erlangen.net.xml"/>
        <route-files value="trips.trips.xml"/>
    </input>

    <output>
        <output-file value="erlangen.rou.xml"/>
        <alternatives-output value="erlangen.rou.alt.xml"/>
    </output>

    <time>
        <begin value="0"/>
        <end value="50"/>
    </time>

    <report>
        <no-warnings value="true"/>
        <ignore-errors value="true"/>
        <no-step-log value="true"/>
    </report>
    
    
    
      <vehicle id="0" depart="0.00">
        <route edges="30405358#0 30405358#1 85355912 85355911#0 85355911#1 30405356 4400949 31982182#0 4047241 4797872 4797871 4006668 126606716 113939242#0 113939242#1 113939242#2 113939241 -113939241"/>
    </vehicle>
    <vehicle id="1" depart="1.00">
        <route edges="-4006683 32302591#2 32302591#3 32302591#4 32302591#5 -32302591#5"/>
    </vehicle>
    <vehicle id="2" depart="2.00">
        <route edges="37591481 -113939241 113939244#0 113939244#1 113939244#2 -126606716 23339459 30405358#1 85355912 85355911#0 85355911#1 30405356 4400949 31982182#0 31982182#1"/>
    </vehicle>
    <vehicle id="3" depart="3.00">
        <route edges="4047378 -4047378 10573414#1 3013106#0 3013106#1 3013106#2 4006702#0 4006702#1 4006702#2 -23805514#1 -23805514#0"/>
    </vehicle>
    <vehicle id="4" depart="4.00">
        <route edges="10425130 -4006688#3 -4006688#2 -4006688#1 -4006688#0 31401017#1 31401017#2 25398494#0 113939242#2 113939241 -113939241"/>
    </vehicle>
    <vehicle id="5" depart="5.00">
        <route edges="-3998615#0 3013106#2 4319352#1 44069041#0 44069041#1 25472079 30405352 30350445 -33174302#1 -33174302#0 -32270595 -29900561#1 -29900561#0 -4006688#4 -4006688#3 -4006688#2 -4006688#1 -4006688#0 31401017#1 31401017#2 25398494#0"/>
    </vehicle>
    <vehicle id="6" depart="6.00">
        <route edges="-113939241 113939244#0 -25398494#0 -31401017#2 -31401017#1"/>
    </vehicle>
    <vehicle id="7" depart="7.00">
        <route edges="30405358#1 85355912 85355911#0 85355911#1 30405356 25472079 30405352 30350445 -33174302#1 -33174302#0 -32270595 8402997 8402998#1 8402998#2 29900564#1 29900564#2 29900564#3 29900564#4 29900564#5"/>
    </vehicle>
    <vehicle id="8" depart="8.00">
        <route edges="-3998615#1 4006726#0 4006726#1 4006726#2 -3998645#0 -3998612#0 30357194"/>
    </vehicle>
    <vehicle id="9" depart="9.00">
        <route edges="4006684 32302591#3 32302591#4 32302591#5 -32270595 8402997 8402998#1 8402998#2 29900564#1 8403007 -23341293 -10425128#0"/>
    </vehicle>
    <vehicle id="10" depart="10.00">
        <route edges="4006683 4006674#2 4006674#3 4006674#4 4006687 32270595"/>
    </vehicle>
    <vehicle id="11" depart="11.00">
        <route edges="-4006740 3998613#2 -31353573#1 -31353573#0 4686970#0 25472257 -30357194"/>
    </vehicle>
    <vehicle id="12" depart="12.00">
        <route edges="4900739#1 4900739#2 4900741 35842306#0 35842306#1 4047446#0 4047446#1 5931612 30350450#0 30350450#1 30350450#2 4006702#0 4006702#1 4006702#2 -28269598 -4006703#1 -4006703#0"/>
    </vehicle>
    <vehicle id="13" depart="13.00">
        <route edges="-29900565#0 -4006690 -4006693#4 -4006693#3 -4006693#2 -4006693#1 -4006693#0 25398494#0 -25398494#0"/>
    </vehicle>
    <vehicle id="14" depart="14.00">
        <route edges="4006702#2 -4006702#2 -4006702#1 -4006702#0 4319352#1 44069041#0 44069041#1 4400949 31982182#0 4047241 4797872 4797871 4006668 23339459 30405358#1"/>
    </vehicle>
    <vehicle id="15" depart="15.00">
        <route edges="4006683 4006674#2 4006674#3 4006674#4 4006687 32270595 33174302#0 33174302#1 4686970#0 25472257 -30357194 3998612#0 3998612#1"/>
    </vehicle>
    <vehicle id="16" depart="16.00">
        <route edges="25472299 30350448 30350449 25472079 30405352 30350445 -33174302#1 -33174302#0 -32270595 -29900561#1 -29900561#0 29900564#0 8402998#3"/>
    </vehicle>
    <vehicle id="17" depart="17.00">
        <route edges="-5445204#2 -5445204#1 113939242#1 -25398494#0 4006693#0 -23605595 -8403007 29900564#2 -4006691 29900565#1 29900565#2 29900565#3"/>
    </vehicle>
    <vehicle id="18" depart="18.00">
        <route edges="4006691 -29900564#2 -29900564#1 -8402998#2 -8402998#1 -8402997 32270595 33174302#0 33174302#1 4686970#0 4686970#1 122161381 30350448 8364476 30350450#0 30350450#1 30350450#2 4006702#0 31255203#0 -31241851#2 -31241851#1 -31241851#0 31241816#3 31241835#1 31241834#0"/>
    </vehicle>
    <vehicle id="19" depart="19.00">
        <route edges="4006705#1 -4006705#1 4006703#1 28269598 -4006702#2 -4006702#1 -4006702#0 4319352#1 44069041#0 44069041#1 5931612 30350450#0 30350450#1"/>
    </vehicle>
    <vehicle id="20" depart="20.00">
        <route edges="31982182#0 4047241 4797872 4797871 -15259223"/>
    </vehicle>
    <vehicle id="21" depart="21.00">
        <route edges="-3998643#0 -3998612#1 -3998612#0 3998613#0 3998613#1 3998613#2 -31353573#1 4006673 -32302591#4 -32302591#3 -32302591#2 -32302591#1 -32302591#0 4006672 32270593 32270592#0 -4006675"/>
    </vehicle>
    <vehicle id="22" depart="22.00">
        <route edges="-29900561#0 -4006688#4 -4006688#3 -4006688#2 -4006688#1 -4006688#0 31401017#1 31401017#2 25398494#0 113939242#2 113939241 -37591481"/>
    </vehicle>
    <vehicle id="23" depart="23.00">
        <route edges="-3013106#0 -3998612#2 -3998612#1 -3998612#0 3998613#0 3998613#1 3998613#2 -31353573#1 4006673 -32302591#4 -32302591#3 -32302591#2 -32302591#1 -32302591#0 4006672 -4006672"/>
    </vehicle>
    <vehicle id="24" depart="24.00">
        <route edges="30405358#0 30405358#1 85355912 85355911#0 85355911#1 30405356 5931612 30350450#0 -3998645#2 -3998645#1 -4006726#2 -4006726#1"/>
    </vehicle>
    <vehicle id="25" depart="25.00">
        <route edges="-4900043 -4006702#1 -4006702#0 4319352#1 44069041#0 44069041#1 25472079 30405352 30350445 -33174302#1 -33174302#0 -32270595"/>
    </vehicle>
    <vehicle id="26" depart="26.00">
        <route edges="-4006682 32302591#1 32302591#2 32302591#3 32302591#4 32302591#5 33174302#0 33174302#1 4686970#0 4686970#1 122161381 30350448 8364476 30350450#0 30350450#1 30350450#2 4319352#1 44069041#0"/>
    </vehicle>
    <vehicle id="27" depart="27.00">
        <route edges="30405358#1"/>
    </vehicle>
    <vehicle id="28" depart="28.00">
        <route edges="-32270595 32270595 33174302#0 33174302#1 4686970#0 25472257 -30357194 3998612#0 3998612#1"/>
    </vehicle>
    <vehicle id="29" depart="29.00">
        <route edges="-31720632#0 -4006705#2 -4006705#1 4006703#1 28269598 -4006702#2 -4006702#1 -4006702#0 -3013106#2 3998615#0 3998615#1 3998615#2 -4099270#0"/>
    </vehicle>
    <vehicle id="30" depart="30.00">
        <route edges="94344940#0 -94344940#0 28768072 -28613737 -4006702#0 4319352#1 44069041#0 44069041#1 25472079 30405352 30350445 31353573#0"/>
    </vehicle>
    <vehicle id="31" depart="31.00">
        <route edges="28613734 28613727#0 28613727#1 -94344940#0 28768072 -28613737 -4006702#0 4319352#1 44069041#0 44069041#1 4400949 31982182#0 31982182#1"/>
    </vehicle>
    <vehicle id="32" depart="32.00">
        <route edges="4006702#1 -4006702#1 -4006702#0 4319352#1 44069041#0 44069041#1 25472079 30405352 30350445 -33174302#1 -33174302#0 -32302591#5 -32302591#4 -32302591#3 -32302591#2 -32302591#1 -32302591#0 4006672"/>
    </vehicle>
    <vehicle id="33" depart="33.00">
        <route edges="-3998643#0 -3998612#1 -3998612#0 30357194 25472299 30350448 30350449 4400949 31982182#0 4047241 4797872 4797871 4006668 126606716 113939242#0 113939242#1 113939242#2 113939241 -113939241"/>
    </vehicle>
    <vehicle id="34" depart="34.00">
        <route edges="-4006702#2 -4006702#1 -4006702#0 -3013106#2 3998615#0 4006726#0 4006726#1 4006726#2 -3998645#0"/>
    </vehicle>
    <vehicle id="35" depart="35.00">
        <route edges="-3998613#0 30357194 25472299 30350448 30350449 4400949 31982182#0 4047241 4797872 4797871"/>
    </vehicle>
    <vehicle id="36" depart="36.00">
        <route edges="4006726#0 4006726#1 4006726#2 -3998645#0 -3998612#0 30357194 25472299 30350448 30350449 25472079 30405352 30350445 -33174302#1 -33174302#0 -32270595 8402997 8402998#1 8402998#2 29900564#1 29900564#2 -4006691"/>
    </vehicle>
    <vehicle id="37" depart="37.00">
        <route edges="31241816#0 -31241838#1 -31241838#0 -31255203#1 -31255203#0 -4006702#0 4319352#1 44069041#0 25472134 30751813 -35842306#1 -35842306#0 -4900741 -4900739#2 -4900739#1"/>
    </vehicle>
    <vehicle id="38" depart="38.00">
        <route edges="4319352#0 4319352#1 44069041#0 44069041#1 4400949 31982182#0 4047241 4797872 4797871 4006668 126606716 113939242#0 113939242#1 113939242#2 113939241"/>
    </vehicle>
    <vehicle id="39" depart="39.00">
        <route edges="-4006676 32302591#4 32302591#5 33174302#0 33174302#1 31353573#0 31353573#1 -3998613#2"/>
    </vehicle>
    <vehicle id="40" depart="40.00">
        <route edges="29900564#0 -8402998#2 -8402998#1 -8402997 32270595 33174302#0 33174302#1 4686970#0 4686970#1 122161381 30350448 8364476 30350450#0 30350450#1 -3998643#2 -3998643#1"/>
    </vehicle>
    <vehicle id="41" depart="41.00">
        <route edges="3013107 3013106#1 3998615#0 4006726#0 4006726#1 4099270#0"/>
    </vehicle>
    <vehicle id="42" depart="42.00">
        <route edges="-8403007 -29900564#1 -8402998#2 -8402998#1 -8402997 32270595 -32302591#5 -32302591#4 -32302591#3"/>
    </vehicle>
    <vehicle id="43" depart="43.00">
        <route edges="94344941 28768072 -28613737 -4006702#0 4319352#1 44069041#0 25472134 30751813 4047446#0 25472129"/>
    </vehicle>
    <vehicle id="44" depart="44.00">
        <route edges="-29900565#0 -4006690 -4006693#4 -4006693#3 -4006693#2 -4006693#1 -4006693#0 25398494#0 113939244#1 113939244#2 -126606716 -4006668 -15259223"/>
    </vehicle>
    <vehicle id="45" depart="45.00">
        <route edges="-3013109 3013106#0 3013106#1 3013106#2 4006702#0 31255203#0 31255203#1 31241838#0 -31241853#1 31241853#1"/>
    </vehicle>
    <vehicle id="46" depart="46.00">
        <route edges="4006674#3 4006674#4 4006687 32270595 33174302#0 33174302#1 4686970#0 4686970#1 122161381 30350448 8364476 30350450#0 30350450#1 30350450#2 4006702#0 28613737 94344941 94344940#0 -94344940#0"/>
    </vehicle>
    <vehicle id="47" depart="47.00">
        <route edges="-28269601 28269601 37591481 -113939241 113939244#0 113939244#1 113939244#2 -126606716 23339459 30405358#1 85355912 85355911#0 85355911#1 30405356 4047309 30751813 -35842306#1 -35842306#0 -4900741 -4900739#2 -4900739#1 -4099309"/>
    </vehicle>
    <vehicle id="48" depart="48.00">
        <route edges="94344940#2 -94344940#2 -28613727#1 28613727#1"/>
    </vehicle>
    <vehicle id="49" depart="49.00">
        <route edges="8402997 -8402997 32270595 33174302#0 33174302#1 4686970#0 4686970#1 122161381 30350448 8364476 30350450#0 30350450#1 30350450#2 4006702#0 4006702#1 4006702#2 -28269598 -4006703#1 4006705#1 4006705#2"/>
    </vehicle>



  <vType id="vtype0" accel="2.6" decel="4.5" sigma="0.5" length="2.5" minGap="2.5" maxSpeed="14" color="1,1,0"/>
   <route id="route0" edges="-39539626 -5445204#2 -5445204#1 113939244#2 -126606716 23339459 30405358#1 85355912 85355911#0 85355911#1 30405356 5931612 30350450#0 30350450#1 30350450#2 4006702#0 4006702#1 4900043 4900041#1"/>
   <flow id="flow0" type="vtype0" route="route0" begin="20" period="3" number="195"/>
   
   
   
   
   
   
   
   
   
     
  <vType id="vtype0" accel="2.6" decel="4.5" sigma="0.5" length="2.5" minGap="2.5" maxSpeed="14" color="1,1,0"/>
   <route id="route0" edges="-39539626 -5445204#2 -5445204#1 113939244#2 -126606716 23339459 30405358#1 85355912 85355911#0 85355911#1 30405356 5931612 30350450#0 30350450#1 30350450#2 4006702#0 4006702#1 4900043 4900041#1"/>
   <flow id="flow0" type="vtype0" route="route0" begin="1" period="1" number="50"/>
   
   
   
     <vType id="vtype1" accel="2.6" decel="4.5" sigma="0.5" length="2.5" minGap="2.5" maxSpeed="14" color="1,1,0"/>
        <route id="route1" edges="30405358#0 30405358#1 85355912 85355911#0 85355911#1 30405356 4400949 31982182#0 4047241 4797872 4797871 4006668 126606716 113939242#0 113939242#1 113939242#2 113939241 -113939241"/>
   <flow id="flow1" type="vtype1" route="route1" begin="1" period="1" number="50"/>
   
       
  <vType id="vtype2" accel="2.6" decel="4.5" sigma="0.5" length="2.5" minGap="2.5" maxSpeed="14" color="1,1,0"/>
        <route id="route2" edges="-4006683 32302591#2 32302591#3 32302591#4 32302591#5 -32302591#5"/>
   <flow id="flow2" type="vtype2" route="route2" begin="1" period="1" number="50"/>
   
       
  <vType id="vtype3" accel="2.6" decel="4.5" sigma="0.5" length="2.5" minGap="2.5" maxSpeed="14" color="1,1,0"/>
        <route id="route3" edges="4047378 -4047378 10573414#1 3013106#0 3013106#1 3013106#2 4006702#0 4006702#1 4006702#2 -23805514#1 -23805514#0"/>
   <flow id="flow3" type="vtype3" route="route3" begin="1" period="1" number="50"/>
   
       
  <vType id="vtype4" accel="2.6" decel="4.5" sigma="0.5" length="2.5" minGap="2.5" maxSpeed="14" color="1,1,0"/>
        <route id="route4" edges="10425130 -4006688#3 -4006688#2 -4006688#1 -4006688#0 31401017#1 31401017#2 25398494#0 113939242#2 113939241 -113939241"/>
   <flow id="flow4" type="vtype4" route="route4" begin="1" period="1" number="50"/>
   
   
   
   
   
     <vType id="vtype5" accel="2.6" decel="4.5" sigma="0.5" length="2.5" minGap="2.5" maxSpeed="14" color="1,1,0"/>
        <route id="route5" edges="-3998615#0 3013106#2 4319352#1 44069041#0 44069041#1 25472079 30405352 30350445 -33174302#1 -33174302#0 -32270595 -29900561#1 -29900561#0 -4006688#4 -4006688#3 -4006688#2 -4006688#1 -4006688#0 31401017#1 31401017#2 25398494#0"/>
   <flow id="flow5" type="vtype5" route="route5" begin="1" period="1" number="50"/>
   
     <vType id="vtype6" accel="2.6" decel="4.5" sigma="0.5" length="2.5" minGap="2.5" maxSpeed="14" color="1,1,0"/>
        <route id="route6" edges="30405358#1 85355912 85355911#0 85355911#1 30405356 25472079 30405352 30350445 -33174302#1 -33174302#0 -32270595 8402997 8402998#1 8402998#2 29900564#1 29900564#2 29900564#3 29900564#4 29900564#5"/>
   <flow id="flow6" type="vtype6" route="route6" begin="1" period="1" number="50"/>
   
     <vType id="vtype7" accel="2.6" decel="4.5" sigma="0.5" length="2.5" minGap="2.5" maxSpeed="14" color="1,1,0"/>
        <route id="route7" edges="4006684 32302591#3 32302591#4 32302591#5 -32270595 8402997 8402998#1 8402998#2 29900564#1 8403007 -23341293 -10425128#0"/>
   <flow id="flow7" type="vtype7" route="route7" begin="1" period="1" number="50"/>
   
     <vType id="vtype8" accel="2.6" decel="4.5" sigma="0.5" length="2.5" minGap="2.5" maxSpeed="14" color="1,1,0"/>
        <route id="route8" edges="4900739#1 4900739#2 4900741 35842306#0 35842306#1 4047446#0 4047446#1 5931612 30350450#0 30350450#1 30350450#2 4006702#0 4006702#1 4006702#2 -28269598 -4006703#1 -4006703#0"/>
   <flow id="flow8" type="vtype8" route="route8" begin="1" period="1" number="50"/>
   
     <vType id="vtype9" accel="2.6" decel="4.5" sigma="0.5" length="2.5" minGap="2.5" maxSpeed="14" color="1,1,0"/>
        <route id="route9" edges="4006702#2 -4006702#2 -4006702#1 -4006702#0 4319352#1 44069041#0 44069041#1 4400949 31982182#0 4047241 4797872 4797871 4006668 23339459 30405358#1"/>
   <flow id="flow9" type="vtype9" route="route9" begin="1" period="1" number="50"/>
          






      <vehicle id="0" depart="0.00">
        <route edges="30405358#0 30405358#1 85355912 85355911#0 85355911#1 30405356 4400949 31982182#0 4047241 4797872 4797871 4006668 126606716 113939242#0 113939242#1 113939242#2 113939241 -113939241"/>
    </vehicle>
    <vehicle id="1" depart="0.00">
        <route edges="-4006683 32302591#2 32302591#3 32302591#4 32302591#5 -32302591#5"/>
    </vehicle>
    <vehicle id="2" depart="0.00">
        <route edges="37591481 -113939241 113939244#0 113939244#1 113939244#2 -126606716 23339459 30405358#1 85355912 85355911#0 85355911#1 30405356 4400949 31982182#0 31982182#1"/>
    </vehicle>
    <vehicle id="3" depart="0.00">
        <route edges="4047378 -4047378 10573414#1 3013106#0 3013106#1 3013106#2 4006702#0 4006702#1 4006702#2 -23805514#1 -23805514#0"/>
    </vehicle>
    <vehicle id="4" depart="0.00">
        <route edges="10425130 -4006688#3 -4006688#2 -4006688#1 -4006688#0 31401017#1 31401017#2 25398494#0 113939242#2 113939241 -113939241"/>
    </vehicle>
    <vehicle id="5" depart="0.00">
        <route edges="-3998615#0 3013106#2 4319352#1 44069041#0 44069041#1 25472079 30405352 30350445 -33174302#1 -33174302#0 -32270595 -29900561#1 -29900561#0 -4006688#4 -4006688#3 -4006688#2 -4006688#1 -4006688#0 31401017#1 31401017#2 25398494#0"/>
    </vehicle>
    <vehicle id="6" depart="0.00">
        <route edges="-113939241 113939244#0 -25398494#0 -31401017#2 -31401017#1"/>
    </vehicle>
    <vehicle id="7" depart="0.00">
        <route edges="30405358#1 85355912 85355911#0 85355911#1 30405356 25472079 30405352 30350445 -33174302#1 -33174302#0 -32270595 8402997 8402998#1 8402998#2 29900564#1 29900564#2 29900564#3 29900564#4 29900564#5"/>
    </vehicle>
    <vehicle id="8" depart="0.00">
        <route edges="-3998615#1 4006726#0 4006726#1 4006726#2 -3998645#0 -3998612#0 30357194"/>
    </vehicle>
    <vehicle id="9" depart="0.00">
        <route edges="4006684 32302591#3 32302591#4 32302591#5 -32270595 8402997 8402998#1 8402998#2 29900564#1 8403007 -23341293 -10425128#0"/>
    </vehicle>
    <vehicle id="10" depart="0.00">
        <route edges="4006683 4006674#2 4006674#3 4006674#4 4006687 32270595"/>
    </vehicle>
    <vehicle id="11" depart="0.00">
        <route edges="-4006740 3998613#2 -31353573#1 -31353573#0 4686970#0 25472257 -30357194"/>
    </vehicle>
    <vehicle id="12" depart="0.00">
        <route edges="4900739#1 4900739#2 4900741 35842306#0 35842306#1 4047446#0 4047446#1 5931612 30350450#0 30350450#1 30350450#2 4006702#0 4006702#1 4006702#2 -28269598 -4006703#1 -4006703#0"/>
    </vehicle>
    <vehicle id="13" depart="0.00">
        <route edges="-29900565#0 -4006690 -4006693#4 -4006693#3 -4006693#2 -4006693#1 -4006693#0 25398494#0 -25398494#0"/>
    </vehicle>
    <vehicle id="14" depart="0.00">
        <route edges="4006702#2 -4006702#2 -4006702#1 -4006702#0 4319352#1 44069041#0 44069041#1 4400949 31982182#0 4047241 4797872 4797871 4006668 23339459 30405358#1"/>
    </vehicle>
    <vehicle id="15" depart="0.00">
        <route edges="4006683 4006674#2 4006674#3 4006674#4 4006687 32270595 33174302#0 33174302#1 4686970#0 25472257 -30357194 3998612#0 3998612#1"/>
    </vehicle>
    <vehicle id="16" depart="0.00">
        <route edges="25472299 30350448 30350449 25472079 30405352 30350445 -33174302#1 -33174302#0 -32270595 -29900561#1 -29900561#0 29900564#0 8402998#3"/>
    </vehicle>
    <vehicle id="17" depart="0.00">
        <route edges="-5445204#2 -5445204#1 113939242#1 -25398494#0 4006693#0 -23605595 -8403007 29900564#2 -4006691 29900565#1 29900565#2 29900565#3"/>
    </vehicle>
    <vehicle id="18" depart="0.00">
        <route edges="4006691 -29900564#2 -29900564#1 -8402998#2 -8402998#1 -8402997 32270595 33174302#0 33174302#1 4686970#0 4686970#1 122161381 30350448 8364476 30350450#0 30350450#1 30350450#2 4006702#0 31255203#0 -31241851#2 -31241851#1 -31241851#0 31241816#3 31241835#1 31241834#0"/>
    </vehicle>
    <vehicle id="19" depart="0.00">
        <route edges="4006705#1 -4006705#1 4006703#1 28269598 -4006702#2 -4006702#1 -4006702#0 4319352#1 44069041#0 44069041#1 5931612 30350450#0 30350450#1"/>
    </vehicle> 
  
   
   
   
   
         <vehicle id="0" depart="0.00">
        <route edges="30405358#0 30405358#1 85355912 85355911#0 85355911#1 30405356 4400949 31982182#0 4047241 4797872 4797871 4006668 126606716 113939242#0 113939242#1 113939242#2 113939241 -113939241"/>
    </vehicle>
   
   
   
</configuration>
-->

<routes xmlns:xsi="http://www.w3.org/2001/XMLSchema-instance" xsi:noNamespaceSchemaLocation="http://sumo.dlr.de/xsd/routes_file.xsd">
       
    
      <vehicle id="0" depart="0.00">
        <route edges="30405358#0 30405358#1 85355912 85355911#0 85355911#1 30405356 4400949 31982182#0 4047241 4797872 4797871 4006668 126606716 113939242#0 113939242#1 113939242#2 113939241 -113939241"/>
    </vehicle>
    <vehicle id="1" depart="0.00">
        <route edges="-4006683 32302591#2 32302591#3 32302591#4 32302591#5 -32302591#5"/>
    </vehicle>
    <vehicle id="2" depart="0.00">
        <route edges="37591481 -113939241 113939244#0 113939244#1 113939244#2 -126606716 23339459 30405358#1 85355912 85355911#0 85355911#1 30405356 4400949 31982182#0 31982182#1"/>
    </vehicle>
    <vehicle id="3" depart="0.00">
        <route edges="4047378 -4047378 10573414#1 3013106#0 3013106#1 3013106#2 4006702#0 4006702#1 4006702#2 -23805514#1 -23805514#0"/>
    </vehicle>
    <vehicle id="4" depart="0.00">
        <route edges="10425130 -4006688#3 -4006688#2 -4006688#1 -4006688#0 31401017#1 31401017#2 25398494#0 113939242#2 113939241 -113939241"/>
    </vehicle>
    <vehicle id="5" depart="0.00">
        <route edges="-3998615#0 3013106#2 4319352#1 44069041#0 44069041#1 25472079 30405352 30350445 -33174302#1 -33174302#0 -32270595 -29900561#1 -29900561#0 -4006688#4 -4006688#3 -4006688#2 -4006688#1 -4006688#0 31401017#1 31401017#2 25398494#0"/>
    </vehicle>
    <vehicle id="6" depart="0.00">
        <route edges="-113939241 113939244#0 -25398494#0 -31401017#2 -31401017#1"/>
    </vehicle>
    <vehicle id="7" depart="0.00">
        <route edges="30405358#1 85355912 85355911#0 85355911#1 30405356 25472079 30405352 30350445 -33174302#1 -33174302#0 -32270595 8402997 8402998#1 8402998#2 29900564#1 29900564#2 29900564#3 29900564#4 29900564#5"/>
    </vehicle>
    <vehicle id="8" depart="0.00">
        <route edges="-3998615#1 4006726#0 4006726#1 4006726#2 -3998645#0 -3998612#0 30357194"/>
    </vehicle>
    <vehicle id="9" depart="0.00">
        <route edges="4006684 32302591#3 32302591#4 32302591#5 -32270595 8402997 8402998#1 8402998#2 29900564#1 8403007 -23341293 -10425128#0"/>
    </vehicle>
    <vehicle id="10" depart="0.00">
        <route edges="4006683 4006674#2 4006674#3 4006674#4 4006687 32270595"/>
    </vehicle>
    <vehicle id="11" depart="0.00">
        <route edges="-4006740 3998613#2 -31353573#1 -31353573#0 4686970#0 25472257 -30357194"/>
    </vehicle>
    <vehicle id="12" depart="0.00">
        <route edges="4900739#1 4900739#2 4900741 35842306#0 35842306#1 4047446#0 4047446#1 5931612 30350450#0 30350450#1 30350450#2 4006702#0 4006702#1 4006702#2 -28269598 -4006703#1 -4006703#0"/>
    </vehicle>
    <vehicle id="13" depart="0.00">
        <route edges="-29900565#0 -4006690 -4006693#4 -4006693#3 -4006693#2 -4006693#1 -4006693#0 25398494#0 -25398494#0"/>
    </vehicle>
    <vehicle id="14" depart="0.00">
        <route edges="4006702#2 -4006702#2 -4006702#1 -4006702#0 4319352#1 44069041#0 44069041#1 4400949 31982182#0 4047241 4797872 4797871 4006668 23339459 30405358#1"/>
    </vehicle>
    <vehicle id="15" depart="0.00">
        <route edges="4006683 4006674#2 4006674#3 4006674#4 4006687 32270595 33174302#0 33174302#1 4686970#0 25472257 -30357194 3998612#0 3998612#1"/>
    </vehicle>
    <vehicle id="16" depart="0.00">
        <route edges="25472299 30350448 30350449 25472079 30405352 30350445 -33174302#1 -33174302#0 -32270595 -29900561#1 -29900561#0 29900564#0 8402998#3"/>
    </vehicle>
    <vehicle id="17" depart="0.00">
        <route edges="-5445204#2 -5445204#1 113939242#1 -25398494#0 4006693#0 -23605595 -8403007 29900564#2 -4006691 29900565#1 29900565#2 29900565#3"/>
    </vehicle>
    <vehicle id="18" depart="0.00">
        <route edges="4006691 -29900564#2 -29900564#1 -8402998#2 -8402998#1 -8402997 32270595 33174302#0 33174302#1 4686970#0 4686970#1 122161381 30350448 8364476 30350450#0 30350450#1 30350450#2 4006702#0 31255203#0 -31241851#2 -31241851#1 -31241851#0 31241816#3 31241835#1 31241834#0"/>
    </vehicle>
    <vehicle id="19" depart="0.00">
        <route edges="4006705#1 -4006705#1 4006703#1 28269598 -4006702#2 -4006702#1 -4006702#0 4319352#1 44069041#0 44069041#1 5931612 30350450#0 30350450#1"/>
    </vehicle> 
      <vehicle id="20" depart="5.00">
        <route edges="4006705#1 -4006705#1 4006703#1 28269598 -4006702#2 -4006702#1 -4006702#0 4319352#1 44069041#0 44069041#1 5931612 30350450#0 30350450#1"/>
    </vehicle> 
      <vehicle id="21" depart="10.00">
        <route edges="4006705#1 -4006705#1 4006703#1 28269598 -4006702#2 -4006702#1 -4006702#0 4319352#1 44069041#0 44069041#1 5931612 30350450#0 30350450#1"/>
    </vehicle> 
  
</routes>
